&share
 wrf_core = 'NMB',
 max_dom = 2,
 start_date = '2013-11-04_00:00:00', '2013-11-04_00:00:00',
 end_date = '2013-11-05_00:00:00', '2013-11-05_00:00:00',
 interval_seconds = 10800   
 io_form_geogrid = 2,
 debug_level = 50 
/

&geogrid
 parent_id =           0, 1, 2
 parent_grid_ratio =   1, 3, 3
 s_we           = 1, 1, 1
 e_we           = 310, 173, 349
 s_sn           = 1, 1, 1
 e_sn           = 460, 161, 199
 geog_data_res  = '2m', '2m', '2m'
 dx = 0.099622,
 dy = 0.09253,
 map_proj = 'rotated_llb'
 ref_lat   = 38.8
 ref_lon   = -100.5
 dom_cen_lat = 38.8, 38.8, 38.8
 dom_cen_lon = -100.5, -100.5, -119.0
 truelat1  =  38.8
 truelat2  =  38.8
 stand_lon =  -100.5
 geog_data_path = '/glade/p/ral/jnt/DATA_nems_init/geog'
 opt_geogrid_tbl_path   = '.'
 ncep_processing = .false.   
 ncep_proc_path = '/glade/p/ral/jnt/DATA_nems_init/geog'
 ncep_proc_prefix = 'b'
 ncep_proc_domain_type = 'bgrid'
 do_gwd = .false.
 just_last = .false.
 use_igbp = .false.
 ncep_proc_grib2 = .false.
/

&ungrib
 out_format = 'WPS'
 prefix = 'GFS'
 spectral = .false.
/

&metgrid
 fg_name = 'GFS',
 io_form_metgrid = 2, 
  opt_metgrid_tbl_path   = '.'
/

&nemsinterp
 pt = 1000.
 ptsgm = 30000.
 nz = 45  
 direct_temp = .true.
 global = .false.
 do_clouds = .true.
 grib_src = 'GFS'
 boundary_flux = .true.
 lnsh = 1
 lnsv = 1
 vcoord = 1
 coord_levs = 
/
